resultados/CN15/CN15_EXP_POWERS.CSV
Element, Terminal, P(kW), Q(kvar),  P_Normal, Q_Normal, P_Emergency, Q_Emergency
"Line.L_CEI_MT_5070"    ,   1,       -15.4,        -7.0,         0.0,         0.0,         0.0,         0.0
"Line.L_CEI_MT_5070"    ,   2,        15.4,         7.0
"Line.L_CEI_MT_15536"   ,   1,        -4.7,        -2.1,         0.0,         0.0,         0.0,         0.0
"Line.L_CEI_MT_15536"   ,   2,         4.7,         2.1
"Line.L_CEI_MT_15882A"  ,   1,         5.2,         2.3,         0.0,         0.0,         0.0,         0.0
"Line.L_CEI_MT_15882A"  ,   2,        -5.2,        -2.3
"Line.L_CEI_MT_16214A"  ,   1,      -258.9,      -117.4,         0.0,         0.0,         0.0,         0.0
"Line.L_CEI_MT_16214A"  ,   2,       258.9,       117.4
"Line.L_CEI_MT_16214A99",   1,       258.9,       117.4,         0.0,         0.0,         0.0,         0.0
"Line.L_CEI_MT_16214A99",   2,      -258.9,      -117.4
"Line.L_CEI_MT_16434A"  ,   1,      -161.5,       -73.3,         0.0,         0.0,         0.0,         0.0
"Line.L_CEI_MT_16434A"  ,   2,       161.5,        73.3
"Line.L_CEI_MT_171819"  ,   1,      1218.4,       549.0,         0.0,         0.0,         0.0,         0.0
"Line.L_CEI_MT_171819"  ,   2,     -1217.9,      -548.9
"Line.L_CEI_MT_171820"  ,   1,      1218.9,       549.2,         0.0,         0.0,         0.0,         0.0
"Line.L_CEI_MT_171820"  ,   2,     -1218.4,      -549.0
"Line.L_CEI_MT_171828"  ,   1,        -6.5,        -2.9,         0.0,         0.0,         0.0,         0.0
"Line.L_CEI_MT_171828"  ,   2,         6.5,         2.9
"Line.L_CEI_MT_171838"  ,   1,      -320.2,      -145.4,         0.0,         0.0,         0.0,         0.0
"Line.L_CEI_MT_171838"  ,   2,       320.2,       145.4
"Line.L_CEI_MT_171839"  ,   1,      -335.7,      -152.4,         0.0,         0.0,         0.0,         0.0
"Line.L_CEI_MT_171839"  ,   2,       335.8,       152.5
"Line.L_CEI_MT_171841"  ,   1,         0.0,         0.0,         0.0,         0.0,         0.0,         0.0
"Line.L_CEI_MT_171841"  ,   2,        -0.0,        -0.0
"Line.L_CEI_MT_171843"  ,   1,         0.0,        -0.0,         0.0,         0.0,         0.0,         0.0
"Line.L_CEI_MT_171843"  ,   2,        -0.0,        -0.0
"Line.L_CEI_MT_171854"  ,   1,         0.0,         0.0,         0.0,         0.0,         0.0,         0.0
"Line.L_CEI_MT_171854"  ,   2,        -0.0,        -0.0
"Line.L_CEI_MT_171863"  ,   1,      1447.3,       648.2,         0.0,         0.0,         0.0,         0.0
"Line.L_CEI_MT_171863"  ,   2,     -1446.5,      -648.0
"Line.L_CEI_MT_171864"  ,   1,     -1447.3,      -648.2,         0.0,         0.0,         0.0,         0.0
"Line.L_CEI_MT_171864"  ,   2,      1447.9,       648.4
"Line.L_CEI_MT_171865"  ,   1,     -1447.9,      -648.4,         0.0,         0.0,         0.0,         0.0
"Line.L_CEI_MT_171865"  ,   2,      1448.6,       648.6
"Line.L_CEI_MT_171866"  ,   1,      1449.6,       648.9,         0.0,         0.0,         0.0,         0.0
"Line.L_CEI_MT_171866"  ,   2,     -1448.6,      -648.6
"Line.L_CEI_MT_171867"  ,   1,      -692.5,      -314.5,         0.0,         0.0,         0.0,         0.0
"Line.L_CEI_MT_171867"  ,   2,       692.8,       314.6
"Line.L_CEI_MT_171870"  ,   1,     -2142.4,      -963.5,         0.0,         0.0,         0.0,         0.0
"Line.L_CEI_MT_171870"  ,   2,      2149.6,       965.7
"Line.L_CEI_MT_171871"  ,   1,         0.0,         0.0,         0.0,         0.0,         0.0,         0.0
"Line.L_CEI_MT_171871"  ,   2,         0.0,        -0.0
"Line.L_CEI_MT_171872"  ,   1,        -0.0,         0.0,         0.0,         0.0,         0.0,         0.0
"Line.L_CEI_MT_171872"  ,   2,         0.0,        -0.0
"Line.L_CEI_MT_171881"  ,   1,         0.0,         0.0,         0.0,         0.0,         0.0,         0.0
"Line.L_CEI_MT_171881"  ,   2,         0.0,        -0.0
"Line.L_CEI_MT_171882"  ,   1,        -0.0,         0.0,         0.0,         0.0,         0.0,         0.0
"Line.L_CEI_MT_171882"  ,   2,        -0.0,        -0.0
"Line.L_CEI_MT_171885"  ,   1,     -2149.6,      -965.7,         0.0,         0.0,         0.0,         0.0
"Line.L_CEI_MT_171885"  ,   2,      2155.8,       967.6
"Line.L_CEI_MT_171886"  ,   1,        -0.0,        -0.0,         0.0,         0.0,         0.0,         0.0
"Line.L_CEI_MT_171886"  ,   2,         0.0,         0.0
"Line.L_CEI_MT_171887"  ,   1,        -0.0,        -0.0,         0.0,         0.0,         0.0,         0.0
"Line.L_CEI_MT_171887"  ,   2,         0.0,         0.0
"Line.L_CEI_MT_171888"  ,   1,        -0.0,         0.0,         0.0,         0.0,         0.0,         0.0
"Line.L_CEI_MT_171888"  ,   2,         0.0,         0.0
"Line.L_CEI_MT_171889"  ,   1,     -2155.8,      -967.6,         0.0,         0.0,         0.0,         0.0
"Line.L_CEI_MT_171889"  ,   2,      2169.0,       971.6
"Line.L_CEI_MT_171893"  ,   1,     -2169.0,      -971.6,         0.0,         0.0,         0.0,         0.0
"Line.L_CEI_MT_171893"  ,   2,      2187.4,       977.2
"Line.L_CEI_MT_171895"  ,   1,         0.0,        -0.0,         0.0,         0.0,         0.0,         0.0
"Line.L_CEI_MT_171895"  ,   2,        -0.0,         0.0
"Line.L_CEI_MT_171897"  ,   1,      2244.1,       998.1,         0.0,         0.0,         0.0,         0.0
"Line.L_CEI_MT_171897"  ,   2,     -2212.1,      -988.4
"Line.L_CEI_MT_171898"  ,   1,         0.0,         0.0,         0.0,         0.0,         0.0,         0.0
"Line.L_CEI_MT_171898"  ,   2,        -0.0,         0.0
"Line.L_CEI_MT_171900"  ,   1,        -0.0,        -0.0,         0.0,         0.0,         0.0,         0.0
"Line.L_CEI_MT_171900"  ,   2,        -0.0,         0.0
"Line.L_CEI_MT_171901"  ,   1,         0.0,        -0.0,         0.0,         0.0,         0.0,         0.0
"Line.L_CEI_MT_171901"  ,   2,         0.0,         0.0
"Line.L_CEI_MT_171903"  ,   1,        -0.0,        -0.0,         0.0,         0.0,         0.0,         0.0
"Line.L_CEI_MT_171903"  ,   2,        -0.0,        -0.0
"Line.L_CEI_MT_171909"  ,   1,       441.6,       159.2,         0.0,         0.0,         0.0,         0.0
"Line.L_CEI_MT_171909"  ,   2,      -441.4,      -159.1
"Line.L_CEI_MT_171910"  ,   1,      -441.8,      -159.2,         0.0,         0.0,         0.0,         0.0
"Line.L_CEI_MT_171910"  ,   2,       442.0,       159.3
"Line.L_CEI_MT_171911"  ,   1,         0.0,        -0.0,         0.0,         0.0,         0.0,         0.0
"Line.L_CEI_MT_171911"  ,   2,        -0.0,         0.0
"Line.L_CEI_MT_171919"  ,   1,         0.0,         0.0,         0.0,         0.0,         0.0,         0.0
"Line.L_CEI_MT_171919"  ,   2,        -0.0,        -0.0
"Line.L_CEI_MT_171921"  ,   1,        -0.0,         0.0,         0.0,         0.0,         0.0,         0.0
"Line.L_CEI_MT_171921"  ,   2,         0.0,         0.0
"Line.L_CEI_MT_171953"  ,   1,         0.0,        -0.0,         0.0,         0.0,         0.0,         0.0
"Line.L_CEI_MT_171953"  ,   2,        -0.0,         0.0
"Line.L_CEI_MT_171954"  ,   1,         0.0,         0.0,         0.0,         0.0,         0.0,         0.0
"Line.L_CEI_MT_171954"  ,   2,        -0.0,        -0.0
"Line.L_CEI_MT_171955"  ,   1,         0.0,        -0.0,         0.0,         0.0,         0.0,         0.0
"Line.L_CEI_MT_171955"  ,   2,        -0.0,         0.0
"Line.L_CEI_MT_171958"  ,   1,         0.0,        -0.0,         0.0,         0.0,         0.0,         0.0
"Line.L_CEI_MT_171958"  ,   2,        -0.0,         0.0
"Line.L_CEI_MT_171959"  ,   1,         0.0,        -0.0,         0.0,         0.0,         0.0,         0.0
"Line.L_CEI_MT_171959"  ,   2,         0.0,         0.0
"Line.L_CEI_MT_171960"  ,   1,        -0.0,         0.0,         0.0,         0.0,         0.0,         0.0
"Line.L_CEI_MT_171960"  ,   2,         0.0,        -0.0
"Line.L_CEI_MT_171961"  ,   1,        -0.0,        -0.0,         0.0,         0.0,         0.0,         0.0
"Line.L_CEI_MT_171961"  ,   2,         0.0,         0.0
"Line.L_CEI_MT_171965"  ,   1,      7325.4,      3442.8,         0.0,         0.0,         0.0,         0.0
"Line.L_CEI_MT_171965"  ,   2,     -7324.3,     -3441.7
"Line.L_CEI_MT_171966"  ,   1,     -7325.4,     -3442.8,         0.0,         0.0,         0.0,         0.0
"Line.L_CEI_MT_171966"  ,   2,      7326.5,      3443.9
"Line.L_CEI_MT_171967"  ,   1,     -7326.5,     -3443.9,         0.0,         0.0,         0.0,         0.0
"Line.L_CEI_MT_171967"  ,   2,      7328.2,      3445.6
"Line.L_CEI_MT_171969"  ,   1,        -0.0,         0.0,         0.0,         0.0,         0.0,         0.0
"Line.L_CEI_MT_171969"  ,   2,         0.0,         0.0
"Line.L_CEI_MT_171976"  ,   1,        -0.0,         0.0,         0.0,         0.0,         0.0,         0.0
"Line.L_CEI_MT_171976"  ,   2,         0.0,        -0.0
"Line.L_CEI_MT_171977"  ,   1,         0.0,        -0.0,         0.0,         0.0,         0.0,         0.0
"Line.L_CEI_MT_171977"  ,   2,         0.0,        -0.0
"Line.L_CEI_MT_171978"  ,   1,        -0.0,        -0.0,         0.0,         0.0,         0.0,         0.0
"Line.L_CEI_MT_171978"  ,   2,        -0.0,         0.0
"Line.L_CEI_MT_171981"  ,   1,       -58.8,       -26.7,         0.0,         0.0,         0.0,         0.0
"Line.L_CEI_MT_171981"  ,   2,        58.8,        26.7
"Line.L_CEI_MT_171986"  ,   1,         0.0,         0.0,         0.0,         0.0,         0.0,         0.0
"Line.L_CEI_MT_171986"  ,   2,        -0.0,        -0.0
"Line.L_CEI_MT_171987"  ,   1,       -58.8,       -26.7,         0.0,         0.0,         0.0,         0.0
"Line.L_CEI_MT_171987"  ,   2,        58.8,        26.7
"Line.L_CEI_MT_171988"  ,   1,        58.8,        26.7,         0.0,         0.0,         0.0,         0.0
"Line.L_CEI_MT_171988"  ,   2,       -58.8,       -26.7
"Line.L_CEI_MT_171992"  ,   1,       -58.8,       -26.7,         0.0,         0.0,         0.0,         0.0
"Line.L_CEI_MT_171992"  ,   2,        58.8,        26.7
"Line.L_CEI_MT_171994"  ,   1,         0.0,         0.0,         0.0,         0.0,         0.0,         0.0
"Line.L_CEI_MT_171994"  ,   2,        -0.0,        -0.0
"Line.L_CEI_MT_171995"  ,   1,         0.0,         0.0,         0.0,         0.0,         0.0,         0.0
"Line.L_CEI_MT_171995"  ,   2,        -0.0,        -0.0
"Line.L_CEI_MT_172004"  ,   1,        -0.0,         0.0,         0.0,         0.0,         0.0,         0.0
"Line.L_CEI_MT_172004"  ,   2,         0.0,        -0.0
"Line.L_CEI_MT_172005"  ,   1,        -0.0,        -0.0,         0.0,         0.0,         0.0,         0.0
"Line.L_CEI_MT_172005"  ,   2,         0.0,         0.0
"Line.L_CEI_MT_13478A"  ,   1,        20.6,         9.3,         0.0,         0.0,         0.0,         0.0
"Line.L_CEI_MT_13478A"  ,   2,       -20.6,        -9.3
"Line.L_CEI_MT_12338A"  ,   1,      -129.2,       -58.6,         0.0,         0.0,         0.0,         0.0
"Line.L_CEI_MT_12338A"  ,   2,       129.2,        58.6
"Line.L_CEI_MT_14799"   ,   1,         9.2,         4.2,         0.0,         0.0,         0.0,         0.0
"Line.L_CEI_MT_14799"   ,   2,        -9.2,        -4.2
"Line.L_CEI_MT_14800"   ,   1,        29.9,        13.5,         0.0,         0.0,         0.0,         0.0
"Line.L_CEI_MT_14800"   ,   2,       -29.9,       -13.5
"Line.L_CEI_MT_14801"   ,   1,       -29.9,       -13.5,         0.0,         0.0,         0.0,         0.0
"Line.L_CEI_MT_14801"   ,   2,        29.9,        13.5
"Line.L_CEI_MT_14802"   ,   1,        20.7,         9.4,         0.0,         0.0,         0.0,         0.0
"Line.L_CEI_MT_14802"   ,   2,       -20.7,        -9.4
"Line.L_CEI_MT_14803"   ,   1,        20.7,         9.4,         0.0,         0.0,         0.0,         0.0
"Line.L_CEI_MT_14803"   ,   2,       -20.7,        -9.4
"Line.L_CEI_MT_14804"   ,   1,        20.7,         9.4,         0.0,         0.0,         0.0,         0.0
"Line.L_CEI_MT_14804"   ,   2,       -20.7,        -9.4
"Line.L_CEI_MT_14805"   ,   1,        20.7,         9.4,         0.0,         0.0,         0.0,         0.0
"Line.L_CEI_MT_14805"   ,   2,       -20.7,        -9.4
"Line.L_CEI_MT_14806"   ,   1,         4.6,         2.1,         0.0,         0.0,         0.0,         0.0
"Line.L_CEI_MT_14806"   ,   2,        -4.6,        -2.1
"Line.L_CEI_MT_14807"   ,   1,        -4.6,        -2.1,         0.0,         0.0,         0.0,         0.0
"Line.L_CEI_MT_14807"   ,   2,         4.6,         2.1
"Line.L_CEI_MT_14808"   ,   1,         4.6,         2.1,         0.0,         0.0,         0.0,         0.0
"Line.L_CEI_MT_14808"   ,   2,        -4.6,        -2.1
"Line.L_CEI_MT_14809"   ,   1,       192.2,        87.0,         0.0,         0.0,         0.0,         0.0
"Line.L_CEI_MT_14809"   ,   2,      -192.1,       -87.0
"Line.L_CEI_MT_14810"   ,   1,        -7.0,        -3.2,         0.0,         0.0,         0.0,         0.0
"Line.L_CEI_MT_14810"   ,   2,         7.0,         3.2
"Line.L_CEI_MT_14811"   ,   1,        21.0,         9.5,         0.0,         0.0,         0.0,         0.0
"Line.L_CEI_MT_14811"   ,   2,       -21.0,        -9.5
"Line.L_CEI_MT_14812"   ,   1,        21.0,         9.5,         0.0,         0.0,         0.0,         0.0
"Line.L_CEI_MT_14812"   ,   2,       -21.0,        -9.5
"Line.L_CEI_MT_14813"   ,   1,        21.0,         9.5,         0.0,         0.0,         0.0,         0.0
"Line.L_CEI_MT_14813"   ,   2,       -21.0,        -9.5
"Line.L_CEI_MT_14814"   ,   1,        21.0,         9.5,         0.0,         0.0,         0.0,         0.0
"Line.L_CEI_MT_14814"   ,   2,       -21.0,        -9.5
"Line.L_CEI_MT_14815"   ,   1,        21.0,         9.5,         0.0,         0.0,         0.0,         0.0
"Line.L_CEI_MT_14815"   ,   2,       -21.0,        -9.5
"Line.L_CEI_MT_14816"   ,   1,        21.0,         9.5,         0.0,         0.0,         0.0,         0.0
"Line.L_CEI_MT_14816"   ,   2,       -21.0,        -9.5
"Line.L_CEI_MT_14817"   ,   1,        21.0,         9.5,         0.0,         0.0,         0.0,         0.0
"Line.L_CEI_MT_14817"   ,   2,       -21.0,        -9.5
"Line.L_CEI_MT_14818"   ,   1,        21.0,         9.5,         0.0,         0.0,         0.0,         0.0
"Line.L_CEI_MT_14818"   ,   2,       -21.0,        -9.5
"Line.L_CEI_MT_14819"   ,   1,        21.0,         9.5,         0.0,         0.0,         0.0,         0.0
"Line.L_CEI_MT_14819"   ,   2,       -21.0,        -9.5
"Line.L_CEI_MT_14820"   ,   1,        21.0,         9.5,         0.0,         0.0,         0.0,         0.0
"Line.L_CEI_MT_14820"   ,   2,       -21.0,        -9.5
"Line.L_CEI_MT_14821"   ,   1,        21.0,         9.5,         0.0,         0.0,         0.0,         0.0
"Line.L_CEI_MT_14821"   ,   2,       -21.0,        -9.5
"Line.L_CEI_MT_14822"   ,   1,        21.0,         9.5,         0.0,         0.0,         0.0,         0.0
"Line.L_CEI_MT_14822"   ,   2,       -21.0,        -9.5
"Line.L_CEI_MT_14823"   ,   1,        21.0,         9.5,         0.0,         0.0,         0.0,         0.0
"Line.L_CEI_MT_14823"   ,   2,       -21.0,        -9.5
"Line.L_CEI_MT_14824"   ,   1,        21.0,         9.5,         0.0,         0.0,         0.0,         0.0
"Line.L_CEI_MT_14824"   ,   2,       -21.0,        -9.5
"Line.L_CEI_MT_14825"   ,   1,      -692.3,      -314.4,         0.0,         0.0,         0.0,         0.0
"Line.L_CEI_MT_14825"   ,   2,       692.4,       314.5
"Line.L_CEI_MT_14826"   ,   1,      -692.4,      -314.5,         0.0,         0.0,         0.0,         0.0
"Line.L_CEI_MT_14826"   ,   2,       692.5,       314.5
"Line.L_CEI_MT_14827"   ,   1,         9.9,         4.5,         0.0,         0.0,         0.0,         0.0
"Line.L_CEI_MT_14827"   ,   2,        -9.9,        -4.5
"Line.L_CEI_MT_14828"   ,   1,        -9.9,        -4.5,         0.0,         0.0,         0.0,         0.0
"Line.L_CEI_MT_14828"   ,   2,         9.9,         4.5
"Line.L_CEI_MT_14829"   ,   1,      -487.1,      -179.5,         0.0,         0.0,         0.0,         0.0
"Line.L_CEI_MT_14829"   ,   2,       487.2,       179.6
"Line.L_CEI_MT_14830"   ,   1,         6.8,         3.1,         0.0,         0.0,         0.0,         0.0
"Line.L_CEI_MT_14830"   ,   2,        -6.8,        -3.1
"Line.L_CEI_MT_14831"   ,   1,      1281.9,       577.0,         0.0,         0.0,         0.0,         0.0
"Line.L_CEI_MT_14831"   ,   2,     -1279.7,      -576.3
"Line.L_CEI_MT_14832"   ,   1,      1272.9,       573.2,         0.0,         0.0,         0.0,         0.0
"Line.L_CEI_MT_14832"   ,   2,     -1271.4,      -572.7
...
"Line.SW_FT3432"        ,   1,         0.0,         0.0,         0.0,         0.0,         0.0,         0.0
"Line.SW_FT3432"        ,   2,        -0.0,        -0.0
"Line.SW_FX2587"        ,   1,       -21.1,        -9.6,         0.0,         0.0,         0.0,         0.0
"Line.SW_FX2587"        ,   2,        21.1,         9.6
"Line.SW_FIC2004"       ,   1,         0.0,         0.0,         0.0,         0.0,         0.0,         0.0
"Line.SW_FIC2004"       ,   2,        -0.0,        -0.0
"Line.SW_FZ1012_DP_12240",   1,        -0.0,        -0.0,         0.0,         0.0,         0.0,         0.0
"Line.SW_FZ1012_DP_12240",   2,         0.0,         0.0
"Line.SW_FU0743"        ,   1,         0.0,         0.0,         0.0,         0.0,         0.0,         0.0
"Line.SW_FU0743"        ,   2,        -0.0,        -0.0
"Line.SW_2175_SCN"      ,   1,        -0.0,         0.0,         0.0,         0.0,         0.0,         0.0
"Line.SW_2175_SCN"      ,   2,         0.0,        -0.0
"Line.SW_FP1476F"       ,   1,      -167.0,       -75.7,         0.0,         0.0,         0.0,         0.0
"Line.SW_FP1476F"       ,   2,       167.0,        75.7
"Line.SW_FIC2008"       ,   1,      -177.4,       -80.4,         0.0,         0.0,         0.0,         0.0
"Line.SW_FIC2008"       ,   2,       177.4,        80.4
"Line.SW_FX2678"        ,   1,        -0.0,        -0.0,         0.0,         0.0,         0.0,         0.0
"Line.SW_FX2678"        ,   2,         0.0,         0.0
"Line.SW_FW6568"        ,   1,       -18.4,        -8.4,         0.0,         0.0,         0.0,         0.0
"Line.SW_FW6568"        ,   2,        18.4,         8.4
"Line.SW_FT6092"        ,   1,         0.0,         0.0,         0.0,         0.0,         0.0,         0.0
"Line.SW_FT6092"        ,   2,        -0.0,        -0.0
"Line.SW_FP8207"        ,   1,        -0.0,        -0.0,         0.0,         0.0,         0.0,         0.0
"Line.SW_FP8207"        ,   2,         0.0,         0.0
"Line.SW_FP0928"        ,   1,         0.0,        -0.0,         0.0,         0.0,         0.0,         0.0
"Line.SW_FP0928"        ,   2,        -0.0,         0.0
"Line.SW_FU4650"        ,   1,        -0.0,        -0.0,         0.0,         0.0,         0.0,         0.0
"Line.SW_FU4650"        ,   2,         0.0,         0.0
"Line.SW_FP3922"        ,   1,       -25.9,       -11.7,         0.0,         0.0,         0.0,         0.0
"Line.SW_FP3922"        ,   2,        25.9,        11.7
"Line.SW_FU2966"        ,   1,        -0.0,        -0.0,         0.0,         0.0,         0.0,         0.0
"Line.SW_FU2966"        ,   2,         0.0,         0.0
"Line.SW_FIC6219"       ,   1,       -34.3,       -15.6,         0.0,         0.0,         0.0,         0.0
"Line.SW_FIC6219"       ,   2,        34.3,        15.6
"Line.SW_FX2155"        ,   1,      -126.4,       -57.4,         0.0,         0.0,         0.0,         0.0
"Line.SW_FX2155"        ,   2,       126.4,        57.4
"Line.SW_FP1477"        ,   1,      -287.5,      -130.4,         0.0,         0.0,         0.0,         0.0
"Line.SW_FP1477"        ,   2,       287.5,       130.4
"Line.SW_FIC3836"       ,   1,         0.0,         0.0,         0.0,         0.0,         0.0,         0.0
"Line.SW_FIC3836"       ,   2,        -0.0,        -0.0
"Line.SW_FZ0734"        ,   1,         0.0,        -0.0,         0.0,         0.0,         0.0,         0.0
"Line.SW_FZ0734"        ,   2,        -0.0,         0.0
"Line.SW_FIC4166"       ,   1,       -50.2,       -22.8,         0.0,         0.0,         0.0,         0.0
"Line.SW_FIC4166"       ,   2,        50.2,        22.8
"Line.SW_FP7913"        ,   1,         0.0,        -0.0,         0.0,         0.0,         0.0,         0.0
"Line.SW_FP7913"        ,   2,        -0.0,         0.0
"Line.SW_FX3717"        ,   1,         0.0,         0.0,         0.0,         0.0,         0.0,         0.0
"Line.SW_FX3717"        ,   2,        -0.0,        -0.0
"Line.SW_FP4175_DP_21647",   1,         0.0,        -0.0,         0.0,         0.0,         0.0,         0.0
"Line.SW_FP4175_DP_21647",   2,        -0.0,         0.0
"Line.SW_FW7439"        ,   1,        -0.0,        -0.0,         0.0,         0.0,         0.0,         0.0
"Line.SW_FW7439"        ,   2,         0.0,         0.0
"Line.SW_FW6456"        ,   1,      -733.8,      -331.7,         0.0,         0.0,         0.0,         0.0
"Line.SW_FW6456"        ,   2,       733.8,       331.7
"Line.SW_FX4290"        ,   1,        -0.0,         0.0,         0.0,         0.0,         0.0,         0.0
"Line.SW_FX4290"        ,   2,         0.0,        -0.0
"Line.SW_FIC3850"       ,   1,         0.0,         0.0,         0.0,         0.0,         0.0,         0.0
"Line.SW_FIC3850"       ,   2,        -0.0,        -0.0
"Line.SW_FX2297"        ,   1,         0.0,        -0.0,         0.0,         0.0,         0.0,         0.0
"Line.SW_FX2297"        ,   2,        -0.0,         0.0
"Line.SW_FU4749"        ,   1,        -0.0,        -0.0,         0.0,         0.0,         0.0,         0.0
"Line.SW_FU4749"        ,   2,         0.0,         0.0
"Line.SW_FF0625"        ,   1,        -0.0,        -0.0,         0.0,         0.0,         0.0,         0.0
"Line.SW_FF0625"        ,   2,         0.0,         0.0
"Line.SW_FP5989_DP_19738",   1,         0.0,        -0.0,         0.0,         0.0,         0.0,         0.0
"Line.SW_FP5989_DP_19738",   2,        -0.0,         0.0
"Line.SW_FP4528"        ,   1,       -23.6,       -10.7,         0.0,         0.0,         0.0,         0.0
"Line.SW_FP4528"        ,   2,        23.6,        10.7
"Line.SW_FW6078"        ,   1,        -7.7,        -3.5,         0.0,         0.0,         0.0,         0.0
"Line.SW_FW6078"        ,   2,         7.7,         3.5
"Line.SW_FIC3860"       ,   1,       -23.6,       -10.7,         0.0,         0.0,         0.0,         0.0
"Line.SW_FIC3860"       ,   2,        23.6,        10.7
"Line.SW_FX5275"        ,   1,        -0.0,         0.0,         0.0,         0.0,         0.0,         0.0
"Line.SW_FX5275"        ,   2,         0.0,        -0.0
"Line.SW_FP0937"        ,   1,        -0.0,         0.0,         0.0,         0.0,         0.0,         0.0
"Line.SW_FP0937"        ,   2,         0.0,        -0.0
"Line.SW_FU4651"        ,   1,         0.0,        -0.0,         0.0,         0.0,         0.0,         0.0
"Line.SW_FU4651"        ,   2,        -0.0,         0.0
"Line.SW_FIC3996"       ,   1,         0.0,        -0.0,         0.0,         0.0,         0.0,         0.0
"Line.SW_FIC3996"       ,   2,        -0.0,         0.0
"Line.SW_FU4551"        ,   1,     -1413.6,      -642.2,         0.0,         0.0,         0.0,         0.0
"Line.SW_FU4551"        ,   2,      1413.6,       642.2
"Line.SW_FX4536"        ,   1,     -1351.1,      -612.6,         0.0,         0.0,         0.0,         0.0
"Line.SW_FX4536"        ,   2,      1351.1,       612.6
"Line.SW_FX8727_DP_22261",   1,        -0.0,        -0.0,         0.0,         0.0,         0.0,         0.0
"Line.SW_FX8727_DP_22261",   2,         0.0,         0.0
"Line.SW_FW6610"        ,   1,       -18.4,        -8.3,         0.0,         0.0,         0.0,         0.0
"Line.SW_FW6610"        ,   2,        18.4,         8.3
"Line.SW_FK0918"        ,   1,        -0.0,         0.0,         0.0,         0.0,         0.0,         0.0
"Line.SW_FK0918"        ,   2,         0.0,        -0.0
"Line.SW_FP8842_DP_18829",   1,         0.0,        -0.0,         0.0,         0.0,         0.0,         0.0
"Line.SW_FP8842_DP_18829",   2,        -0.0,         0.0
"Line.SW_FIC3765"       ,   1,     -7004.0,     -3199.7,         0.0,         0.0,         0.0,         0.0
"Line.SW_FIC3765"       ,   2,      7004.0,      3199.7
"Line.SW_FIC3766"       ,   1,     -1880.2,      -859.2,         0.0,         0.0,         0.0,         0.0
"Line.SW_FIC3766"       ,   2,      1880.2,       859.2
"Line.SW_FIC2016"       ,   1,       -31.7,       -14.4,         0.0,         0.0,         0.0,         0.0
"Line.SW_FIC2016"       ,   2,        31.7,        14.4
"Line.SW_FP4396"        ,   1,         0.0,        -0.0,         0.0,         0.0,         0.0,         0.0
"Line.SW_FP4396"        ,   2,        -0.0,         0.0
"Line.SW_FP0920"        ,   1,       -41.4,       -18.8,         0.0,         0.0,         0.0,         0.0
"Line.SW_FP0920"        ,   2,        41.4,        18.8
"Line.SW_FX2133"        ,   1,      -270.9,      -122.9,         0.0,         0.0,         0.0,         0.0
"Line.SW_FX2133"        ,   2,       270.9,       122.9
"Line.SW_FX4291"        ,   1,      -248.8,      -112.9,         0.0,         0.0,         0.0,         0.0
"Line.SW_FX4291"        ,   2,       248.8,       112.9
"Line.SW_FP5957F"       ,   1,        -0.0,         0.0,         0.0,         0.0,         0.0,         0.0
"Line.SW_FP5957F"       ,   2,         0.0,        -0.0
"Line.SW_FK0706"        ,   1,        -0.0,        -0.0,         0.0,         0.0,         0.0,         0.0
"Line.SW_FK0706"        ,   2,         0.0,         0.0
"Line.SW_FK0709"        ,   1,        -0.0,        -0.0,         0.0,         0.0,         0.0,         0.0
"Line.SW_FK0709"        ,   2,         0.0,         0.0
"Line.SW_FW2660"        ,   1,         0.0,         0.0,         0.0,         0.0,         0.0,         0.0
"Line.SW_FW2660"        ,   2,        -0.0,        -0.0
"Line.SW_FF0601"        ,   1,        -0.0,        -0.0,         0.0,         0.0,         0.0,         0.0
"Line.SW_FF0601"        ,   2,         0.0,         0.0
"Line.SW_FT0758"        ,   1,        -0.0,        -0.0,         0.0,         0.0,         0.0,         0.0
"Line.SW_FT0758"        ,   2,         0.0,         0.0
"Line.SW_FT6088"        ,   1,         0.0,        -0.0,         0.0,         0.0,         0.0,         0.0
"Line.SW_FT6088"        ,   2,        -0.0,         0.0
"Line.SW_FU0742"        ,   1,        -0.0,        -0.0,         0.0,         0.0,         0.0,         0.0
"Line.SW_FU0742"        ,   2,         0.0,         0.0
"Line.SW_FX2667"        ,   1,       -74.8,       -34.0,         0.0,         0.0,         0.0,         0.0
"Line.SW_FX2667"        ,   2,        74.8,        34.0
"Line.SW_FX2289_DP_11534",   1,        -0.0,        -0.0,         0.0,         0.0,         0.0,         0.0
"Line.SW_FX2289_DP_11534",   2,         0.0,         0.0
"Line.SW_FX3393_DP_11553",   1,       -51.8,       -23.5,         0.0,         0.0,         0.0,         0.0
"Line.SW_FX3393_DP_11553",   2,        51.8,        23.5
"Line.SW_FX0776"        ,   1,         0.0,         0.0,         0.0,         0.0,         0.0,         0.0
"Line.SW_FX0776"        ,   2,        -0.0,        -0.0
"Line.SW_FP1062_DP_22020",   1,         0.0,        -0.0,         0.0,         0.0,         0.0,         0.0
"Line.SW_FP1062_DP_22020",   2,        -0.0,         0.0
"Line.SW_FZ2700"        ,   1,        -0.0,        -0.0,         0.0,         0.0,         0.0,         0.0
"Line.SW_FZ2700"        ,   2,         0.0,         0.0
"Line.SW_FP1476_DP_19607",   1,      -167.0,       -75.7,         0.0,         0.0,         0.0,         0.0
"Line.SW_FP1476_DP_19607",   2,       167.0,        75.7
"Line.SW_FIC4439"       ,   1,        -0.0,        -0.0,         0.0,         0.0,         0.0,         0.0
"Line.SW_FIC4439"       ,   2,         0.0,         0.0
"Line.SW_FIC4440"       ,   1,        -0.0,        -0.0,         0.0,         0.0,         0.0,         0.0
"Line.SW_FIC4440"       ,   2,         0.0,         0.0
"Line.SW_FW2704"        ,   1,        -4.7,        -2.1,         0.0,         0.0,         0.0,         0.0
"Line.SW_FW2704"        ,   2,         4.7,         2.1
"Line.SW_FIC2018"       ,   1,         0.0,         0.0,         0.0,         0.0,         0.0,         0.0
"Line.SW_FIC2018"       ,   2,        -0.0,        -0.0
"Line.SW_FF0670"        ,   1,       -54.4,       -24.7,         0.0,         0.0,         0.0,         0.0
"Line.SW_FF0670"        ,   2,        54.4,        24.7
"Line.SW_FK0054"        ,   1,        -0.0,        -0.0,         0.0,         0.0,         0.0,         0.0
"Line.SW_FK0054"        ,   2,         0.0,         0.0
"Line.SW_FP0940"        ,   1,         0.0,         0.0,         0.0,         0.0,         0.0,         0.0
"Line.SW_FP0940"        ,   2,        -0.0,        -0.0
"Line.SW_FP0939"        ,   1,         0.0,        -0.0,         0.0,         0.0,         0.0,         0.0
"Line.SW_FP0939"        ,   2,        -0.0,         0.0
"Line.SW_FZ1687"        ,   1,      -440.9,      -200.2,         0.0,         0.0,         0.0,         0.0
"Line.SW_FZ1687"        ,   2,       440.9,       200.2
"Line.SW_FX8595"        ,   1,     -2176.0,      -995.4,         0.0,         0.0,         0.0,         0.0
"Line.SW_FX8595"        ,   2,      2176.0,       995.4
"Line.SW_FW7213"        ,   1,     -4199.0,     -1900.3,         0.0,         0.0,         0.0,         0.0
"Line.SW_FW7213"        ,   2,      4199.0,      1900.3
"Line.SW_FX2287"        ,   1,         0.0,        -0.0,         0.0,         0.0,         0.0,         0.0
"Line.SW_FX2287"        ,   2,        -0.0,         0.0
"Line.SW_FP5849"        ,   1,        -0.0,         0.0,         0.0,         0.0,         0.0,         0.0
"Line.SW_FP5849"        ,   2,         0.0,        -0.0
"Line.SW_FP5721"        ,   1,       -28.3,       -12.9,         0.0,         0.0,         0.0,         0.0
"Line.SW_FP5721"        ,   2,        28.3,        12.9
"Line.SW_FP5675"        ,   1,         0.0,        -0.0,         0.0,         0.0,         0.0,         0.0
"Line.SW_FP5675"        ,   2,        -0.0,         0.0
"Line.SW_FP5672"        ,   1,      -240.3,      -109.1,         0.0,         0.0,         0.0,         0.0
"Line.SW_FP5672"        ,   2,       240.3,       109.1
"Line.SW_FP5556"        ,   1,       -19.8,        -9.0,         0.0,         0.0,         0.0,         0.0
"Line.SW_FP5556"        ,   2,        19.8,         9.0
"Line.SW_FP5542_DP_3474",   1,       -67.6,       -30.7,         0.0,         0.0,         0.0,         0.0
"Line.SW_FP5542_DP_3474",   2,        67.6,        30.7
"Line.SW_FU4554"        ,   1,      -939.9,      -426.8,         0.0,         0.0,         0.0,         0.0
"Line.SW_FU4554"        ,   2,       939.9,       426.8
"Line.SW_FW3671"        ,   1,     -4260.0,     -1934.6,         0.0,         0.0,         0.0,         0.0
"Line.SW_FW3671"        ,   2,      4260.0,      1934.6
"Line.SW_FX5299"        ,   1,         0.0,        -0.0,         0.0,         0.0,         0.0,         0.0
"Line.SW_FX5299"        ,   2,        -0.0,         0.0
"Line.SW_FIC1853"       ,   1,       -64.6,       -29.3,         0.0,         0.0,         0.0,         0.0
"Line.SW_FIC1853"       ,   2,        64.6,        29.3
"Line.SW_FK0792"        ,   1,      -262.4,      -119.1,         0.0,         0.0,         0.0,         0.0
"Line.SW_FK0792"        ,   2,       262.4,       119.1
"Line.SW_FW9143"        ,   1,       -55.6,       -25.2,         0.0,         0.0,         0.0,         0.0
"Line.SW_FW9143"        ,   2,        55.6,        25.2
"Line.SW_FW3678"        ,   1,      -103.1,       -46.8,         0.0,         0.0,         0.0,         0.0
"Line.SW_FW3678"        ,   2,       103.1,        46.8
"Line.SW_FW3197"        ,   1,       -95.0,       -43.1,         0.0,         0.0,         0.0,         0.0
"Line.SW_FW3197"        ,   2,        95.0,        43.1
"Line.SW_FT1871"        ,   1,       -64.3,       -29.2,         0.0,         0.0,         0.0,         0.0
"Line.SW_FT1871"        ,   2,        64.3,        29.2
"Line.SW_FU4751"        ,   1,         0.0,         0.0,         0.0,         0.0,         0.0,         0.0
"Line.SW_FU4751"        ,   2,        -0.0,        -0.0
"Line.SW_FW2665"        ,   1,      -160.5,       -72.8,         0.0,         0.0,         0.0,         0.0
"Line.SW_FW2665"        ,   2,       160.5,        72.8
"Line.SW_FW2076"        ,   1,      -142.6,       -64.7,         0.0,         0.0,         0.0,         0.0
"Line.SW_FW2076"        ,   2,       142.6,        64.7
"Line.SW_FW2664"        ,   1,     -1671.8,      -760.5,         0.0,         0.0,         0.0,         0.0
"Line.SW_FW2664"        ,   2,      1671.8,       760.5
"Line.SW_FP3539_DP_21197",   1,        -6.4,        -2.9,         0.0,         0.0,         0.0,         0.0
"Line.SW_FP3539_DP_21197",   2,         6.4,         2.9
"Line.SW_FW2487"        ,   1,       -50.1,       -22.8,         0.0,         0.0,         0.0,         0.0
"Line.SW_FW2487"        ,   2,        50.1,        22.8
"Line.SW_FX3973"        ,   1,        -0.0,        -0.0,         0.0,         0.0,         0.0,         0.0
"Line.SW_FX3973"        ,   2,         0.0,         0.0
"Line.SW_FZ9202"        ,   1,     -4275.7,     -1944.3,         0.0,         0.0,         0.0,         0.0
"Line.SW_FZ9202"        ,   2,      4275.7,      1944.3
"Line.SW_FK0189"        ,   1,       -54.4,       -24.7,         0.0,         0.0,         0.0,         0.0
"Line.SW_FK0189"        ,   2,        54.4,        24.7
"Line.SW_FF0812"        ,   1,         0.0,        -0.0,         0.0,         0.0,         0.0,         0.0
"Line.SW_FF0812"        ,   2,        -0.0,         0.0
"Line.SW_FP3973"        ,   1,        -0.0,        -0.0,         0.0,         0.0,         0.0,         0.0
"Line.SW_FP3973"        ,   2,         0.0,         0.0
"Line.SW_FIC4083"       ,   1,         0.0,         0.0,         0.0,         0.0,         0.0,         0.0
"Line.SW_FIC4083"       ,   2,        -0.0,        -0.0
"Line.SW_FX9011"        ,   1,        -0.0,         0.0,         0.0,         0.0,         0.0,         0.0
"Line.SW_FX9011"        ,   2,         0.0,        -0.0
"Line.SW_FIC4087"       ,   1,      -314.7,      -142.8,         0.0,         0.0,         0.0,         0.0
"Line.SW_FIC4087"       ,   2,       314.7,       142.8
"Line.SW_FK0098"        ,   1,     -2281.6,     -1043.8,         0.0,         0.0,         0.0,         0.0
"Line.SW_FK0098"        ,   2,      2281.6,      1043.8
"Line.SW_FIC4089"       ,   1,        -0.0,        -0.0,         0.0,         0.0,         0.0,         0.0
"Line.SW_FIC4089"       ,   2,         0.0,         0.0
"Line.SW_FX2216"        ,   1,         0.0,         0.0,         0.0,         0.0,         0.0,         0.0
"Line.SW_FX2216"        ,   2,        -0.0,        -0.0
"Line.SW_FIC4226"       ,   1,        -0.0,        -0.0,         0.0,         0.0,         0.0,         0.0
"Line.SW_FIC4226"       ,   2,         0.0,         0.0
"Line.SW_FF0627"        ,   1,         0.0,        -0.0,         0.0,         0.0,         0.0,         0.0
"Line.SW_FF0627"        ,   2,        -0.0,         0.0
"Line.SW_FA3925"        ,   1,        -0.0,        -0.0,         0.0,         0.0,         0.0,         0.0
"Line.SW_FA3925"        ,   2,         0.0,         0.0
"Line.SW_FT4553_DP_22501",   1,         0.0,        -0.0,         0.0,         0.0,         0.0,         0.0
"Line.SW_FT4553_DP_22501",   2,        -0.0,         0.0
"Line.SW_FT4565"        ,   1,        -0.0,        -0.0,         0.0,         0.0,         0.0,         0.0
"Line.SW_FT4565"        ,   2,         0.0,         0.0
"Line.SW_FP0935_DP_21242",   1,       -33.0,       -15.0,         0.0,         0.0,         0.0,         0.0
"Line.SW_FP0935_DP_21242",   2,        33.0,        15.0
"Line.SW_FIC4128"       ,   1,        -0.0,        -0.0,         0.0,         0.0,         0.0,         0.0
"Line.SW_FIC4128"       ,   2,         0.0,         0.0
"Line.SW_FT5352"        ,   1,        -0.0,        -0.0,         0.0,         0.0,         0.0,         0.0
"Line.SW_FT5352"        ,   2,         0.0,         0.0
"Line.SW_FIC4140"       ,   1,     -1212.5,      -547.2,         0.0,         0.0,         0.0,         0.0
"Line.SW_FIC4140"       ,   2,      1212.5,       547.2
"Line.SW_FW2642"        ,   1,      -279.8,      -126.7,         0.0,         0.0,         0.0,         0.0
"Line.SW_FW2642"        ,   2,       279.8,       126.7
"Line.SW_FX2929"        ,   1,         0.0,        -0.0,         0.0,         0.0,         0.0,         0.0
"Line.SW_FX2929"        ,   2,        -0.0,         0.0
"Line.SW_FX0651"        ,   1,      -296.9,      -134.8,         0.0,         0.0,         0.0,         0.0
"Line.SW_FX0651"        ,   2,       296.9,       134.8
"Line.SW_FM0378_DP_22664",   1,      -645.6,      -293.1,         0.0,         0.0,         0.0,         0.0
"Line.SW_FM0378_DP_22664",   2,       645.6,       293.1
"Line.SW_FIC4283"       ,   1,        -0.0,        -0.0,         0.0,         0.0,         0.0,         0.0
"Line.SW_FIC4283"       ,   2,         0.0,         0.0
"Line.SW_FZ1042"        ,   1,         0.0,         0.0,         0.0,         0.0,         0.0,         0.0
"Line.SW_FZ1042"        ,   2,        -0.0,        -0.0
"Line.SW_FU4750"        ,   1,         0.0,        -0.0,         0.0,         0.0,         0.0,         0.0
"Line.SW_FU4750"        ,   2,        -0.0,         0.0
"Line.SW_FT4526"        ,   1,         0.0,         0.0,         0.0,         0.0,         0.0,         0.0
"Line.SW_FT4526"        ,   2,        -0.0,        -0.0
"Line.SW_FK0035"        ,   1,     -7160.7,     -3330.7,         0.0,         0.0,         0.0,         0.0
"Line.SW_FK0035"        ,   2,      7160.7,      3330.7
"Line.SW_FK0050"        ,   1,     -1070.9,      -484.7,         0.0,         0.0,         0.0,         0.0
"Line.SW_FK0050"        ,   2,      1070.9,       484.7
"Line.SW_FP8543_DP_18764",   1,       -52.1,       -23.6,         0.0,         0.0,         0.0,         0.0
"Line.SW_FP8543_DP_18764",   2,        52.1,        23.6
"Line.SW_FP0909_DP_18768",   1,      -166.3,       -75.5,         0.0,         0.0,         0.0,         0.0
"Line.SW_FP0909_DP_18768",   2,       166.3,        75.5
"Line.SW_FP3273"        ,   1,        -0.0,        -0.0,         0.0,         0.0,         0.0,         0.0
"Line.SW_FP3273"        ,   2,         0.0,         0.0
"Line.SW_FP8817"        ,   1,     -1880.4,      -859.4,         0.0,         0.0,         0.0,         0.0
"Line.SW_FP8817"        ,   2,      1880.4,       859.4
"Line.SW_FP3432"        ,   1,        -0.0,        -0.0,         0.0,         0.0,         0.0,         0.0
"Line.SW_FP3432"        ,   2,         0.0,         0.0
"Line.SW_FW2734"        ,   1,      -245.7,      -111.5,         0.0,         0.0,         0.0,         0.0
"Line.SW_FW2734"        ,   2,       245.7,       111.5
"Line.SW_FU0372"        ,   1,         0.0,        -0.0,         0.0,         0.0,         0.0,         0.0
"Line.SW_FU0372"        ,   2,        -0.0,         0.0
"Line.SW_FW3680"        ,   1,         0.0,         0.0,         0.0,         0.0,         0.0,         0.0
"Line.SW_FW3680"        ,   2,        -0.0,        -0.0
"Line.SW_FW6999"        ,   1,         0.0,         0.0,         0.0,         0.0,         0.0,         0.0
"Line.SW_FW6999"        ,   2,        -0.0,        -0.0
"Line.SW_FW3682"        ,   1,         0.0,         0.0,         0.0,         0.0,         0.0,         0.0
"Line.SW_FW3682"        ,   2,        -0.0,        -0.0
"Line.SW_2333_SCN"      ,   1,        -0.0,         0.0,         0.0,         0.0,         0.0,         0.0
"Line.SW_2333_SCN"      ,   2,         0.0,        -0.0
"Line.SW_2353_SCN"      ,   1,         0.0,        -0.0,         0.0,         0.0,         0.0,         0.0
"Line.SW_2353_SCN"      ,   2,        -0.0,         0.0
"Line.SW_FIC4465"       ,   1,        -0.0,        -0.0,         0.0,         0.0,         0.0,         0.0
"Line.SW_FIC4465"       ,   2,         0.0,         0.0
"Line.SW_FK0656"        ,   1,       -41.1,       -18.6,         0.0,         0.0,         0.0,         0.0
"Line.SW_FK0656"        ,   2,        41.1,        18.6
"Line.SW_FM0148"        ,   1,        -0.0,        -0.0,         0.0,         0.0,         0.0,         0.0
"Line.SW_FM0148"        ,   2,         0.0,         0.0
"Line.SW_FX4147"        ,   1,         0.0,        -0.0,         0.0,         0.0,         0.0,         0.0
"Line.SW_FX4147"        ,   2,        -0.0,         0.0
"Line.SW_FW1428"        ,   1,       -83.4,       -37.8,         0.0,         0.0,         0.0,         0.0
"Line.SW_FW1428"        ,   2,        83.4,        37.8
"Line.SW_FZ2046_DP_23727",   1,      -155.3,       -70.5,         0.0,         0.0,         0.0,         0.0
"Line.SW_FZ2046_DP_23727",   2,       155.3,        70.5
"Line.SW_FW2691"        ,   1,      -484.5,      -219.7,         0.0,         0.0,         0.0,         0.0
"Line.SW_FW2691"        ,   2,       484.5,       219.7
"Line.SW_FK9219"        ,   1,     -1606.2,      -730.4,         0.0,         0.0,         0.0,         0.0
"Line.SW_FK9219"        ,   2,      1606.2,       730.4
"Line.SW_FM1010"        ,   1,        -0.0,        -0.0,         0.0,         0.0,         0.0,         0.0
"Line.SW_FM1010"        ,   2,         0.0,         0.0
"Line.SW_FIC4514"       ,   1,      -314.7,      -142.8,         0.0,         0.0,         0.0,         0.0
"Line.SW_FIC4514"       ,   2,       314.7,       142.8
"Line.SW_FU4550"        ,   1,        -0.0,        -0.0,         0.0,         0.0,         0.0,         0.0
"Line.SW_FU4550"        ,   2,         0.0,         0.0
"Line.SW_FM1015"        ,   1,      -511.4,      -232.2,         0.0,         0.0,         0.0,         0.0
"Line.SW_FM1015"        ,   2,       511.4,       232.2
"Line.SW_FT4307"        ,   1,        -0.0,         0.0,         0.0,         0.0,         0.0,         0.0
"Line.SW_FT4307"        ,   2,         0.0,        -0.0
"Line.SW_FZ1325"        ,   1,     -1700.0,      -774.3,         0.0,         0.0,         0.0,         0.0
"Line.SW_FZ1325"        ,   2,      1700.0,       774.3
"Line.SW_FF0680"        ,   1,       -89.9,       -40.8,         0.0,         0.0,         0.0,         0.0
"Line.SW_FF0680"        ,   2,        89.9,        40.8
"Line.SW_FZ2702"        ,   1,         0.0,         0.0,         0.0,         0.0,         0.0,         0.0
"Line.SW_FZ2702"        ,   2,        -0.0,        -0.0
"Line.SW_FW2724"        ,   1,       -34.3,       -15.6,         0.0,         0.0,         0.0,         0.0
"Line.SW_FW2724"        ,   2,        34.3,        15.6
"Line.SW_FP6499"        ,   1,         0.0,         0.0,         0.0,         0.0,         0.0,         0.0
"Line.SW_FP6499"        ,   2,        -0.0,        -0.0
"Line.SW_FIC3761"       ,   1,      -314.7,      -142.9,         0.0,         0.0,         0.0,         0.0
"Line.SW_FIC3761"       ,   2,       314.7,       142.9
"Line.SW_FIC3767"       ,   1,      -314.7,      -142.9,         0.0,         0.0,         0.0,         0.0
"Line.SW_FIC3767"       ,   2,       314.7,       142.9
"Line.SW_FX4153_DP_19124",   1,      -206.2,       -93.4,         0.0,         0.0,         0.0,         0.0
"Line.SW_FX4153_DP_19124",   2,       206.2,        93.4
"Line.SW_FT6098"        ,   1,     -1823.7,      -832.3,         0.0,         0.0,         0.0,         0.0
"Line.SW_FT6098"        ,   2,      1823.7,       832.3
"Line.SW_FX2548"        ,   1,     -1741.0,      -793.0,         0.0,         0.0,         0.0,         0.0
"Line.SW_FX2548"        ,   2,      1741.0,       793.0
"Line.SW_FZ1968"        ,   1,     -2307.2,     -1055.8,         0.0,         0.0,         0.0,         0.0
"Line.SW_FZ1968"        ,   2,      2307.2,      1055.8
"Line.SW_FU4600"        ,   1,        -0.0,        -0.0,         0.0,         0.0,         0.0,         0.0
"Line.SW_FU4600"        ,   2,         0.0,         0.0
"Line.SW_FW6382"        ,   1,      -164.2,       -74.5,         0.0,         0.0,         0.0,         0.0
"Line.SW_FW6382"        ,   2,       164.2,        74.5
"Line.SW_FW7630"        ,   1,      -125.4,       -56.9,         0.0,         0.0,         0.0,         0.0
"Line.SW_FW7630"        ,   2,       125.4,        56.9
"Line.SW_FIC3779"       ,   1,         0.0,         0.0,         0.0,         0.0,         0.0,         0.0
"Line.SW_FIC3779"       ,   2,        -0.0,        -0.0
"Line.SW_FM0467_DP_19225",   1,      -320.2,      -145.3,         0.0,         0.0,         0.0,         0.0
"Line.SW_FM0467_DP_19225",   2,       320.2,       145.3
"Line.SW_FW3334"        ,   1,       -12.9,        -5.8,         0.0,         0.0,         0.0,         0.0
"Line.SW_FW3334"        ,   2,        12.9,         5.8
"Line.SW_FT4726"        ,   1,         0.0,        -0.0,         0.0,         0.0,         0.0,         0.0
"Line.SW_FT4726"        ,   2,        -0.0,         0.0
"Line.SW_FP0959_DP_23195",   1,      -128.8,       -58.4,         0.0,         0.0,         0.0,         0.0
"Line.SW_FP0959_DP_23195",   2,       128.8,        58.4
"Line.SW_FW0958"        ,   1,         0.0,        -0.0,         0.0,         0.0,         0.0,         0.0
"Line.SW_FW0958"        ,   2,        -0.0,         0.0
"Line.SW_FX9211F"       ,   1,         0.0,        -0.0,         0.0,         0.0,         0.0,         0.0
"Line.SW_FX9211F"       ,   2,        -0.0,         0.0
"Line.SW_FW7220"        ,   1,        -0.0,        -0.0,         0.0,         0.0,         0.0,         0.0
"Line.SW_FW7220"        ,   2,         0.0,         0.0
"Line.SW_FK0777"        ,   1,        -0.0,        -0.0,         0.0,         0.0,         0.0,         0.0
"Line.SW_FK0777"        ,   2,         0.0,         0.0
"Line.SW_FP0943_DP_24140",   1,        -0.0,         0.0,         0.0,         0.0,         0.0,         0.0
"Line.SW_FP0943_DP_24140",   2,         0.0,        -0.0
"Line.SW_FZ2494"        ,   1,        -0.0,        -0.0,         0.0,         0.0,         0.0,         0.0
"Line.SW_FZ2494"        ,   2,         0.0,         0.0
"Line.SW_FW9104"        ,   1,       -49.6,       -22.5,         0.0,         0.0,         0.0,         0.0
"Line.SW_FW9104"        ,   2,        49.6,        22.5
"Line.SW_FW9129"        ,   1,         0.0,         0.0,         0.0,         0.0,         0.0,         0.0
"Line.SW_FW9129"        ,   2,        -0.0,        -0.0
"Line.SW_FW7312"        ,   1,      -118.6,       -53.8,         0.0,         0.0,         0.0,         0.0
"Line.SW_FW7312"        ,   2,       118.6,        53.8
"Line.SW_FW2721"        ,   1,        -0.0,         0.0,         0.0,         0.0,         0.0,         0.0
"Line.SW_FW2721"        ,   2,         0.0,        -0.0
"Line.SW_FT4701"        ,   1,     -2324.0,     -1063.6,         0.0,         0.0,         0.0,         0.0
"Line.SW_FT4701"        ,   2,      2324.0,      1063.6
"Line.SW_FZ3293"        ,   1,       -83.4,       -37.8,         0.0,         0.0,         0.0,         0.0
"Line.SW_FZ3293"        ,   2,        83.4,        37.8
"Line.SW_FT6094"        ,   1,       -74.6,       -33.8,         0.0,         0.0,         0.0,         0.0
"Line.SW_FT6094"        ,   2,        74.6,        33.8
"Line.SW_FW2732"        ,   1,      -105.6,       -47.9,         0.0,         0.0,         0.0,         0.0
"Line.SW_FW2732"        ,   2,       105.6,        47.9
"Line.SW_FU4652"        ,   1,        -0.0,        -0.0,         0.0,         0.0,         0.0,         0.0
"Line.SW_FU4652"        ,   2,         0.0,         0.0
"Line.SW_FX2395"        ,   1,      -119.1,       -54.0,         0.0,         0.0,         0.0,         0.0
"Line.SW_FX2395"        ,   2,       119.1,        54.0
"Line.SW_FX2356_DP_23429",   1,        -0.0,         0.0,         0.0,         0.0,         0.0,         0.0
"Line.SW_FX2356_DP_23429",   2,         0.0,        -0.0
"Line.SW_FP4393"        ,   1,       -13.3,        -6.0,         0.0,         0.0,         0.0,         0.0
"Line.SW_FP4393"        ,   2,        13.3,         6.0
"Line.SW_FIC4445"       ,   1,        -0.0,        -0.0,         0.0,         0.0,         0.0,         0.0
"Line.SW_FIC4445"       ,   2,         0.0,         0.0
"Line.SW_FP0897"        ,   1,         0.0,         0.0,         0.0,         0.0,         0.0,         0.0
"Line.SW_FP0897"        ,   2,        -0.0,        -0.0
"Line.SW_FIC4448"       ,   1,         0.0,         0.0,         0.0,         0.0,         0.0,         0.0
"Line.SW_FIC4448"       ,   2,        -0.0,        -0.0
"Line.SW_FU4589"        ,   1,         0.0,         0.0,         0.0,         0.0,         0.0,         0.0
"Line.SW_FU4589"        ,   2,        -0.0,        -0.0
"Line.SW_FP3835_DP_32647",   1,       -41.2,       -18.7,         0.0,         0.0,         0.0,         0.0
"Line.SW_FP3835_DP_32647",   2,        41.2,        18.7
"Line.SW_FU4641"        ,   1,     -2121.4,      -969.6,         0.0,         0.0,         0.0,         0.0
"Line.SW_FU4641"        ,   2,      2121.4,       969.6
"Line.SW_FW2740"        ,   1,       -45.7,       -20.7,         0.0,         0.0,         0.0,         0.0
"Line.SW_FW2740"        ,   2,        45.7,        20.7
"Line.SW_FK0791"        ,   1,      -154.1,       -69.9,         0.0,         0.0,         0.0,         0.0
"Line.SW_FK0791"        ,   2,       154.1,        69.9
"Line.SW_FIC4562"       ,   1,        -0.0,        -0.0,         0.0,         0.0,         0.0,         0.0
"Line.SW_FIC4562"       ,   2,         0.0,         0.0
"Line.SW_FT4516"        ,   1,      -266.4,      -120.8,         0.0,         0.0,         0.0,         0.0
"Line.SW_FT4516"        ,   2,       266.4,       120.8
"Line.SW_FIC4926"       ,   1,         0.0,         0.0,         0.0,         0.0,         0.0,         0.0
"Line.SW_FIC4926"       ,   2,        -0.0,        -0.0
"Line.SW_CN15_SCN"      ,   1,        -0.0,        -0.0,         0.0,         0.0,         0.0,         0.0
"Line.SW_CN15_SCN"      ,   2,         0.0,         0.0
"Line.SW_FW2480"        ,   1,       -58.8,       -26.7,         0.0,         0.0,         0.0,         0.0
"Line.SW_FW2480"        ,   2,        58.8,        26.7
"Line.SW_FW2724F"       ,   1,       -34.3,       -15.6,         0.0,         0.0,         0.0,         0.0
"Line.SW_FW2724F"       ,   2,        34.3,        15.6
"Line.SW_FIC5484"       ,   1,      -324.0,      -146.9,         0.0,         0.0,         0.0,         0.0
"Line.SW_FIC5484"       ,   2,       324.0,       146.9
"Line.SW_FZ0706"        ,   1,     -2184.7,      -999.6,         0.0,         0.0,         0.0,         0.0
"Line.SW_FZ0706"        ,   2,      2184.7,       999.6
"Line.SW_FU4648"        ,   1,        -0.0,        -0.0,         0.0,         0.0,         0.0,         0.0
"Line.SW_FU4648"        ,   2,         0.0,         0.0
"Line.SW_FX3800_DP_32813",   1,         0.0,        -0.0,         0.0,         0.0,         0.0,         0.0
"Line.SW_FX3800_DP_32813",   2,        -0.0,         0.0
"Line.SW_FW1996"        ,   1,        -0.0,         0.0,         0.0,         0.0,         0.0,         0.0
"Line.SW_FW1996"        ,   2,         0.0,        -0.0
"Line.SW_FW6636"        ,   1,        -0.0,         0.0,         0.0,         0.0,         0.0,         0.0
"Line.SW_FW6636"        ,   2,         0.0,        -0.0
"Line.SW_FP4697_DP_27020",   1,         0.0,         0.0,         0.0,         0.0,         0.0,         0.0
"Line.SW_FP4697_DP_27020",   2,        -0.0,        -0.0
"Line.SW_FP4717"        ,   1,        -0.0,         0.0,         0.0,         0.0,         0.0,         0.0
"Line.SW_FP4717"        ,   2,         0.0,        -0.0
"Line.SW_FP4677_DP_27031",   1,      -462.5,      -210.1,         0.0,         0.0,         0.0,         0.0
"Line.SW_FP4677_DP_27031",   2,       462.5,       210.1
"Line.SW_FX2214"        ,   1,        -0.0,         0.0,         0.0,         0.0,         0.0,         0.0
"Line.SW_FX2214"        ,   2,         0.0,        -0.0
"Line.SW_FP3985"        ,   1,         0.0,        -0.0,         0.0,         0.0,         0.0,         0.0
"Line.SW_FP3985"        ,   2,        -0.0,         0.0
"Line.SW_FIC5525"       ,   1,         0.0,         0.0,         0.0,         0.0,         0.0,         0.0
"Line.SW_FIC5525"       ,   2,        -0.0,        -0.0
"Line.SW_FX2135_DP_32968",   1,       -33.5,       -15.2,         0.0,         0.0,         0.0,         0.0
"Line.SW_FX2135_DP_32968",   2,        33.5,        15.2
"Line.SW_FT4730"        ,   1,     -2150.7,      -983.7,         0.0,         0.0,         0.0,         0.0
"Line.SW_FT4730"        ,   2,      2150.7,       983.7
"Line.SW_FW2737"        ,   1,         0.0,        -0.0,         0.0,         0.0,         0.0,         0.0
"Line.SW_FW2737"        ,   2,        -0.0,         0.0
"Line.SW_FIC5557"       ,   1,        -0.0,         0.0,         0.0,         0.0,         0.0,         0.0
"Line.SW_FIC5557"       ,   2,         0.0,        -0.0
"Line.SW_FW2702"        ,   1,       -55.1,       -25.0,         0.0,         0.0,         0.0,         0.0
"Line.SW_FW2702"        ,   2,        55.1,        25.0
"Line.SW_FX9141"        ,   1,         0.0,        -0.0,         0.0,         0.0,         0.0,         0.0
"Line.SW_FX9141"        ,   2,        -0.0,         0.0
"Line.SW_FIC5560"       ,   1,         0.0,        -0.0,         0.0,         0.0,         0.0,         0.0
"Line.SW_FIC5560"       ,   2,        -0.0,         0.0
"Line.SW_FX4123"        ,   1,        -0.0,         0.0,         0.0,         0.0,         0.0,         0.0
"Line.SW_FX4123"        ,   2,         0.0,        -0.0
"Line.SW_FW3696"        ,   1,         0.0,         0.0,         0.0,         0.0,         0.0,         0.0
"Line.SW_FW3696"        ,   2,        -0.0,        -0.0
"Line.SW_FW3694"        ,   1,        -0.0,         0.0,         0.0,         0.0,         0.0,         0.0
"Line.SW_FW3694"        ,   2,         0.0,        -0.0
"Line.SW_FX2278"        ,   1,         0.0,        -0.0,         0.0,         0.0,         0.0,         0.0
"Line.SW_FX2278"        ,   2,        -0.0,         0.0
"Line.SW_FW2729"        ,   1,       -31.7,       -14.4,         0.0,         0.0,         0.0,         0.0
"Line.SW_FW2729"        ,   2,        31.7,        14.4
"Line.SW_FT1941_DP_31258",   1,       -43.1,       -19.6,         0.0,         0.0,         0.0,         0.0
"Line.SW_FT1941_DP_31258",   2,        43.1,        19.6
"Line.SW_FX0998"        ,   1,         0.0,        -0.0,         0.0,         0.0,         0.0,         0.0
"Line.SW_FX0998"        ,   2,        -0.0,         0.0
"Line.SW_FW3686"        ,   1,        -0.0,        -0.0,         0.0,         0.0,         0.0,         0.0
"Line.SW_FW3686"        ,   2,         0.0,         0.0
"Line.SW_FZ2487"        ,   1,        -0.0,        -0.0,         0.0,         0.0,         0.0,         0.0
"Line.SW_FZ2487"        ,   2,         0.0,         0.0
"Line.SW_FT4531"        ,   1,       -18.1,        -8.2,         0.0,         0.0,         0.0,         0.0
"Line.SW_FT4531"        ,   2,        18.1,         8.2
"Line.SW_FU4699"        ,   1,     -1106.1,      -494.2,         0.0,         0.0,         0.0,         0.0
"Line.SW_FU4699"        ,   2,      1106.1,       494.2
"Line.SW_FT4564"        ,   1,         0.0,        -0.0,         0.0,         0.0,         0.0,         0.0
"Line.SW_FT4564"        ,   2,        -0.0,         0.0
"Line.SW_FT4732"        ,   1,      -416.8,      -189.2,         0.0,         0.0,         0.0,         0.0
"Line.SW_FT4732"        ,   2,       416.8,       189.2
"Line.SW_FU3374"        ,   1,        -0.0,        -0.0,         0.0,         0.0,         0.0,         0.0
"Line.SW_FU3374"        ,   2,         0.0,         0.0
"Line.SW_FT4797"        ,   1,       -33.0,       -15.0,         0.0,         0.0,         0.0,         0.0
"Line.SW_FT4797"        ,   2,        33.0,        15.0
"Line.SW_FT4575"        ,   1,      -298.7,      -135.5,         0.0,         0.0,         0.0,         0.0
"Line.SW_FT4575"        ,   2,       298.7,       135.5
"Line.SW_FT4708"        ,   1,       -15.5,        -7.0,         0.0,         0.0,         0.0,         0.0
"Line.SW_FT4708"        ,   2,        15.5,         7.0
"Line.SW_FX4148"        ,   1,        -0.0,        -0.0,         0.0,         0.0,         0.0,         0.0
"Line.SW_FX4148"        ,   2,         0.0,         0.0
"Line.SW_FT4756"        ,   1,       -24.2,       -11.0,         0.0,         0.0,         0.0,         0.0
"Line.SW_FT4756"        ,   2,        24.2,        11.0
"Line.SW_FX4285"        ,   1,         0.0,        -0.0,         0.0,         0.0,         0.0,         0.0
"Line.SW_FX4285"        ,   2,        -0.0,         0.0
"Line.SW_FW6133"        ,   1,       -75.9,       -34.4,         0.0,         0.0,         0.0,         0.0
"Line.SW_FW6133"        ,   2,        75.9,        34.4
"Line.SW_FIC5008"       ,   1,         0.0,         0.0,         0.0,         0.0,         0.0,         0.0
"Line.SW_FIC5008"       ,   2,        -0.0,        -0.0
"Line.SW_FX9211"        ,   1,         0.0,        -0.0,         0.0,         0.0,         0.0,         0.0
"Line.SW_FX9211"        ,   2,        -0.0,         0.0
"Line.SW_FA2040"        ,   1,     -2336.5,     -1070.0,         0.0,         0.0,         0.0,         0.0
"Line.SW_FA2040"        ,   2,      2336.5,      1070.0
"Line.SW_FT8348"        ,   1,        -0.0,         0.0,         0.0,         0.0,         0.0,         0.0
"Line.SW_FT8348"        ,   2,         0.0,        -0.0
"Line.SW_FP8015"        ,   1,     -1682.5,      -766.0,         0.0,         0.0,         0.0,         0.0
"Line.SW_FP8015"        ,   2,      1682.5,       766.0
"Line.SW_FP8447_DP_31490",   1,         0.0,        -0.0,         0.0,         0.0,         0.0,         0.0
"Line.SW_FP8447_DP_31490",   2,        -0.0,         0.0
"Line.SW_FU4560"        ,   1,      -101.1,       -45.9,         0.0,         0.0,         0.0,         0.0
"Line.SW_FU4560"        ,   2,       101.1,        45.9
"Line.SW_FX2534"        ,   1,      -102.9,       -46.7,         0.0,         0.0,         0.0,         0.0
"Line.SW_FX2534"        ,   2,       102.9,        46.7
"Line.SW_FX0646"        ,   1,         0.0,        -0.0,         0.0,         0.0,         0.0,         0.0
"Line.SW_FX0646"        ,   2,        -0.0,         0.0
"Line.SW_FM0468"        ,   1,      -116.2,       -52.7,         0.0,         0.0,         0.0,         0.0
"Line.SW_FM0468"        ,   2,       116.2,        52.7
"Line.SW_FT1998_DP_35963",   1,      -289.2,      -131.0,         0.0,         0.0,         0.0,         0.0
"Line.SW_FT1998_DP_35963",   2,       289.2,       131.0
"Line.SW_FT1997"        ,   1,      -191.8,       -86.9,         0.0,         0.0,         0.0,         0.0
"Line.SW_FT1997"        ,   2,       191.8,        86.9
"Line.SW_FP0916"        ,   1,        -0.0,        -0.0,         0.0,         0.0,         0.0,         0.0
"Line.SW_FP0916"        ,   2,         0.0,         0.0
"Line.SW_FP0905"        ,   1,       -82.1,       -37.3,         0.0,         0.0,         0.0,         0.0
"Line.SW_FP0905"        ,   2,        82.1,        37.3
"Line.SW_FIC5828"       ,   1,      -177.7,       -80.5,         0.0,         0.0,         0.0,         0.0
"Line.SW_FIC5828"       ,   2,       177.7,        80.5
"Line.SW_FX2951"        ,   1,      -691.2,      -313.9,         0.0,         0.0,         0.0,         0.0
"Line.SW_FX2951"        ,   2,       691.2,       313.9
"Line.SW_FX2549"        ,   1,         0.0,        -0.0,         0.0,         0.0,         0.0,         0.0
"Line.SW_FX2549"        ,   2,        -0.0,         0.0
"Line.SW_FZ2491"        ,   1,         0.0,        -0.0,         0.0,         0.0,         0.0,         0.0
...